test/fixtures/powsybl/ieee57.powsybl/ieee57.xiidm
<?xml version="1.0" encoding="UTF-8"?>
<iidm:network xmlns:iidm="http://www.powsybl.org/schema/iidm/1_17" xmlns:slt="http://www.powsybl.org/schema/iidm/ext/slack_terminal/1_5" id="ieee57cdf" caseDate="1993-08-25T00:00:00.000Z" forecastDistance="0" sourceFormat="IEEE-CDF" minimumValidationLevel="STEADY_STATE_HYPOTHESIS">
    <iidm:substation id="S1">
        <iidm:voltageLevel id="VL1" nominalV="1.0" topologyKind="BUS_BREAKER">
            <iidm:busBreakerTopology>
                <iidm:bus id="B1" name="Kanawha   V1" v="1.04" angle="0.0"/>
            </iidm:busBreakerTopology>
            <iidm:generator id="B1-G" energySource="OTHER" minP="-9999.0" maxP="9999.0" voltageRegulatorOn="true" targetP="128.9" targetV="1.04" targetQ="-16.1" bus="B1" connectableBus="B1">
                <iidm:minMaxReactiveLimits minQ="-1.7976931348623157E308" maxQ="1.7976931348623157E308"/>
            </iidm:generator>
            <iidm:load id="B1-L" loadType="UNDEFINED" p0="55.0" q0="17.0" bus="B1" connectableBus="B1"/>
        </iidm:voltageLevel>
    </iidm:substation>
    <iidm:substation id="S2">
        <iidm:voltageLevel id="VL2" nominalV="1.0" topologyKind="BUS_BREAKER">
            <iidm:busBreakerTopology>
                <iidm:bus id="B2" name="Turner    V1" v="1.01" angle="-1.18"/>
            </iidm:busBreakerTopology>
            <iidm:generator id="B2-G" energySource="OTHER" minP="-9999.0" maxP="9999.0" voltageRegulatorOn="true" targetP="0.0" targetV="1.01" targetQ="-0.8" bus="B2" connectableBus="B2">
                <iidm:minMaxReactiveLimits minQ="-17.0" maxQ="50.0"/>
            </iidm:generator>
            <iidm:load id="B2-L" loadType="UNDEFINED" p0="3.0" q0="88.0" bus="B2" connectableBus="B2"/>
        </iidm:voltageLevel>
    </iidm:substation>
    <iidm:substation id="S3">
        <iidm:voltageLevel id="VL3" nominalV="1.0" topologyKind="BUS_BREAKER">
            <iidm:busBreakerTopology>
                <iidm:bus id="B3" name="Logan     V1" v="0.985" angle="-5.97"/>
            </iidm:busBreakerTopology>
            <iidm:generator id="B3-G" energySource="OTHER" minP="-9999.0" maxP="9999.0" voltageRegulatorOn="true" targetP="40.0" targetV="0.985" targetQ="-1.0" bus="B3" connectableBus="B3">
                <iidm:minMaxReactiveLimits minQ="-10.0" maxQ="60.0"/>
            </iidm:generator>
            <iidm:load id="B3-L" loadType="UNDEFINED" p0="41.0" q0="21.0" bus="B3" connectableBus="B3"/>
        </iidm:voltageLevel>
    </iidm:substation>
    <iidm:substation id="S4">
        <iidm:voltageLevel id="VL4" nominalV="1.0" topologyKind="BUS_BREAKER">
            <iidm:busBreakerTopology>
                <iidm:bus id="B4" name="Sprigg    V1" v="0.981" angle="-7.32"/>
                <iidm:bus id="B18" name="Sprigg    V2" v="1.001" angle="-11.71"/>
            </iidm:busBreakerTopology>
            <iidm:load id="B18-L" loadType="UNDEFINED" p0="27.2" q0="9.8" bus="B18" connectableBus="B18"/>
            <iidm:shuntCompensator id="B18-SH" sectionCount="1" voltageRegulatorOn="false" bus="B18" connectableBus="B18">
                <iidm:shuntLinearModel bPerSection="10.0" maximumSectionCount="1"/>
            </iidm:shuntCompensator>
        </iidm:voltageLevel>
        <iidm:twoWindingsTransformer id="T4-18-1" r="0.0" x="0.00555" ratedU1="0.97" ratedU2="1.0" voltageLevelId1="VL4" bus1="B4" connectableBus1="B4" voltageLevelId2="VL4" bus2="B18" connectableBus2="B18"/>
        <iidm:twoWindingsTransformer id="T4-18-2" r="0.0" x="0.0043" ratedU1="0.978" ratedU2="1.0" voltageLevelId1="VL4" bus1="B4" connectableBus1="B4" voltageLevelId2="VL4" bus2="B18" connectableBus2="B18"/>
    </iidm:substation>
    <iidm:substation id="S5">
        <iidm:voltageLevel id="VL5" nominalV="1.0" topologyKind="BUS_BREAKER">
            <iidm:busBreakerTopology>
                <iidm:bus id="B5" name="Bus 5     V1" v="0.976" angle="-8.52"/>
            </iidm:busBreakerTopology>
            <iidm:load id="B5-L" loadType="UNDEFINED" p0="13.0" q0="4.0" bus="B5" connectableBus="B5"/>
        </iidm:voltageLevel>
    </iidm:substation>
    <iidm:substation id="S6">
        <iidm:voltageLevel id="VL6" nominalV="1.0" topologyKind="BUS_BREAKER">
            <iidm:busBreakerTopology>
                <iidm:bus id="B6" name="Beaver Ck V1" v="0.98" angle="-8.65"/>
            </iidm:busBreakerTopology>
            <iidm:generator id="B6-G" energySource="OTHER" minP="-9999.0" maxP="9999.0" voltageRegulatorOn="true" targetP="0.0" targetV="0.98" targetQ="0.8" bus="B6" connectableBus="B6">
                <iidm:minMaxReactiveLimits minQ="-8.0" maxQ="25.0"/>
            </iidm:generator>
            <iidm:load id="B6-L" loadType="UNDEFINED" p0="75.0" q0="2.0" bus="B6" connectableBus="B6"/>
        </iidm:voltageLevel>
    </iidm:substation>
    <iidm:substation id="S7">
        <iidm:voltageLevel id="VL7" nominalV="1.0" topologyKind="BUS_BREAKER">
            <iidm:busBreakerTopology>
                <iidm:bus id="B7" name="Bus 7     V1" v="0.984" angle="-7.58"/>
                <iidm:bus id="B29" name="Bus 29    V5" v="1.01" angle="-9.75"/>
            </iidm:busBreakerTopology>
            <iidm:load id="B29-L" loadType="UNDEFINED" p0="17.0" q0="2.6" bus="B29" connectableBus="B29"/>
        </iidm:voltageLevel>
        <iidm:twoWindingsTransformer id="T7-29-1" r="0.0" x="6.48E-4" ratedU1="0.967" ratedU2="1.0" voltageLevelId1="VL7" bus1="B7" connectableBus1="B7" voltageLevelId2="VL7" bus2="B29" connectableBus2="B29"/>
    </iidm:substation>
    <iidm:substation id="S8">
        <iidm:voltageLevel id="VL8" nominalV="1.0" topologyKind="BUS_BREAKER">
            <iidm:busBreakerTopology>
                <iidm:bus id="B8" name="Clinch Rv V1" v="1.005" angle="-4.45"/>
            </iidm:busBreakerTopology>
            <iidm:generator id="B8-G" energySource="OTHER" minP="-9999.0" maxP="9999.0" voltageRegulatorOn="true" targetP="450.0" targetV="1.005" targetQ="62.1" bus="B8" connectableBus="B8">
                <iidm:minMaxReactiveLimits minQ="-140.0" maxQ="200.0"/>
            </iidm:generator>
            <iidm:load id="B8-L" loadType="UNDEFINED" p0="150.0" q0="22.0" bus="B8" connectableBus="B8"/>
        </iidm:voltageLevel>
    </iidm:substation>
    <iidm:substation id="S9">
        <iidm:voltageLevel id="VL9" nominalV="1.0" topologyKind="BUS_BREAKER">
            <iidm:busBreakerTopology>
                <iidm:bus id="B9" name="Saltville V1" v="0.98" angle="-9.56"/>
                <iidm:bus id="B55" name="Saltville V5" v="1.031" angle="-10.78"/>
            </iidm:busBreakerTopology>
            <iidm:generator id="B9-G" energySource="OTHER" minP="-9999.0" maxP="9999.0" voltageRegulatorOn="true" targetP="0.0" targetV="0.98" targetQ="2.2" bus="B9" connectableBus="B9">
                <iidm:minMaxReactiveLimits minQ="-3.0" maxQ="9.0"/>
            </iidm:generator>
            <iidm:load id="B9-L" loadType="UNDEFINED" p0="121.0" q0="26.0" bus="B9" connectableBus="B9"/>
            <iidm:load id="B55-L" loadType="UNDEFINED" p0="6.8" q0="3.4" bus="B55" connectableBus="B55"/>
        </iidm:voltageLevel>
        <iidm:twoWindingsTransformer id="T9-55-1" r="0.0" x="0.001205" ratedU1="0.94" ratedU2="1.0" voltageLevelId1="VL9" bus1="B9" connectableBus1="B9" voltageLevelId2="VL9" bus2="B55" connectableBus2="B55"/>
    </iidm:substation>
    <iidm:substation id="S10">
        <iidm:voltageLevel id="VL10" nominalV="1.0" topologyKind="BUS_BREAKER">
            <iidm:busBreakerTopology>
                <iidm:bus id="B10" name="Bus 10    V1" v="0.986" angle="-11.43"/>
                <iidm:bus id="B51" name="Bus 51    V3" v="1.052" angle="-12.52"/>
            </iidm:busBreakerTopology>
            <iidm:load id="B10-L" loadType="UNDEFINED" p0="5.0" q0="2.0" bus="B10" connectableBus="B10"/>
            <iidm:load id="B51-L" loadType="UNDEFINED" p0="18.0" q0="5.3" bus="B51" connectableBus="B51"/>
        </iidm:voltageLevel>
        <iidm:twoWindingsTransformer id="T10-51-1" r="0.0" x="7.12E-4" ratedU1="0.93" ratedU2="1.0" voltageLevelId1="VL10" bus1="B10" connectableBus1="B10" voltageLevelId2="VL10" bus2="B51" connectableBus2="B51"/>
    </iidm:substation>
    <iidm:substation id="S11">
        <iidm:voltageLevel id="VL11" nominalV="1.0" topologyKind="BUS_BREAKER">
            <iidm:busBreakerTopology>
                <iidm:bus id="B11" name="Tazewell  V1" v="0.974" angle="-10.17"/>
                <iidm:bus id="B41" name="Tazewell  V6" v="0.996" angle="-14.05"/>
                <iidm:bus id="B43" name="Tazewell  V7" v="1.01" angle="-11.33"/>
            </iidm:busBreakerTopology>
            <iidm:load id="B41-L" loadType="UNDEFINED" p0="6.3" q0="3.0" bus="B41" connectableBus="B41"/>
            <iidm:load id="B43-L" loadType="UNDEFINED" p0="2.0" q0="1.0" bus="B43" connectableBus="B43"/>
        </iidm:voltageLevel>
        <iidm:twoWindingsTransformer id="T11-41-1" r="0.0" x="0.00749" ratedU1="0.955" ratedU2="1.0" voltageLevelId1="VL11" bus1="B11" connectableBus1="B11" voltageLevelId2="VL11" bus2="B41" connectableBus2="B41"/>
        <iidm:twoWindingsTransformer id="T11-43-1" r="0.0" x="0.0015300000000000001" ratedU1="0.958" ratedU2="1.0" voltageLevelId1="VL11" bus1="B11" connectableBus1="B11" voltageLevelId2="VL11" bus2="B43" connectableBus2="B43"/>
    </iidm:substation>
    <iidm:substation id="S12">
        <iidm:voltageLevel id="VL12" nominalV="1.0" topologyKind="BUS_BREAKER">
            <iidm:busBreakerTopology>
                <iidm:bus id="B12" name="Glen Lyn  V1" v="1.015" angle="-10.46"/>
            </iidm:busBreakerTopology>
            <iidm:generator id="B12-G" energySource="OTHER" minP="-9999.0" maxP="9999.0" voltageRegulatorOn="true" targetP="310.0" targetV="1.015" targetQ="128.5" bus="B12" connectableBus="B12">
                <iidm:minMaxReactiveLimits minQ="-150.0" maxQ="155.0"/>
            </iidm:generator>
            <iidm:load id="B12-L" loadType="UNDEFINED" p0="377.0" q0="24.0" bus="B12" connectableBus="B12"/>
        </iidm:voltageLevel>
    </iidm:substation>
    <iidm:substation id="S13">
        <iidm:voltageLevel id="VL13" nominalV="1.0" topologyKind="BUS_BREAKER">
            <iidm:busBreakerTopology>
                <iidm:bus id="B13" name="Bus 13    V1" v="0.979" angle="-9.79"/>
                <iidm:bus id="B49" name="Bus 49    V3" v="1.036" angle="-12.92"/>
            </iidm:busBreakerTopology>
            <iidm:load id="B13-L" loadType="UNDEFINED" p0="18.0" q0="2.3" bus="B13" connectableBus="B13"/>
            <iidm:load id="B49-L" loadType="UNDEFINED" p0="18.0" q0="8.5" bus="B49" connectableBus="B49"/>
        </iidm:voltageLevel>
        <iidm:twoWindingsTransformer id="T13-49-1" r="0.0" x="0.00191" ratedU1="0.895" ratedU2="1.0" voltageLevelId1="VL13" bus1="B13" connectableBus1="B13" voltageLevelId2="VL13" bus2="B49" connectableBus2="B49"/>
    </iidm:substation>
    <iidm:substation id="S14">
        <iidm:voltageLevel id="VL14" nominalV="1.0" topologyKind="BUS_BREAKER">
            <iidm:busBreakerTopology>
                <iidm:bus id="B14" name="Bus 14    V1" v="0.97" angle="-9.33"/>
                <iidm:bus id="B46" name="Bus 46    V3" v="1.05" angle="-11.89"/>
            </iidm:busBreakerTopology>
            <iidm:load id="B14-L" loadType="UNDEFINED" p0="10.5" q0="5.3" bus="B14" connectableBus="B14"/>
        </iidm:voltageLevel>
        <iidm:twoWindingsTransformer id="T14-46-1" r="0.0" x="7.35E-4" ratedU1="0.9" ratedU2="1.0" voltageLevelId1="VL14" bus1="B14" connectableBus1="B14" voltageLevelId2="VL14" bus2="B46" connectableBus2="B46"/>
    </iidm:substation>
    <iidm:substation id="S15">
        <iidm:voltageLevel id="VL15" nominalV="1.0" topologyKind="BUS_BREAKER">
            <iidm:busBreakerTopology>
                <iidm:bus id="B15" name="Bus 15    V1" v="0.988" angle="-7.18"/>
                <iidm:bus id="B45" name="Bus 45    V3" v="1.036" angle="-9.25"/>
            </iidm:busBreakerTopology>
            <iidm:load id="B15-L" loadType="UNDEFINED" p0="22.0" q0="5.0" bus="B15" connectableBus="B15"/>
        </iidm:voltageLevel>
        <iidm:twoWindingsTransformer id="T15-45-1" r="0.0" x="0.001042" ratedU1="0.955" ratedU2="1.0" voltageLevelId1="VL15" bus1="B15" connectableBus1="B15" voltageLevelId2="VL15" bus2="B45" connectableBus2="B45"/>
    </iidm:substation>
    <iidm:substation id="S16">
        <iidm:voltageLevel id="VL16" nominalV="1.0" topologyKind="BUS_BREAKER">
            <iidm:busBreakerTopology>
                <iidm:bus id="B16" name="Bus 16    V1" v="1.013" angle="-8.85"/>
            </iidm:busBreakerTopology>
            <iidm:load id="B16-L" loadType="UNDEFINED" p0="43.0" q0="3.0" bus="B16" connectableBus="B16"/>
        </iidm:voltageLevel>
    </iidm:substation>
    <iidm:substation id="S17">
        <iidm:voltageLevel id="VL17" nominalV="1.0" topologyKind="BUS_BREAKER">
            <iidm:busBreakerTopology>
                <iidm:bus id="B17" name="Bus 17    V1" v="1.017" angle="-5.39"/>
            </iidm:busBreakerTopology>
            <iidm:load id="B17-L" loadType="UNDEFINED" p0="42.0" q0="8.0" bus="B17" connectableBus="B17"/>
        </iidm:voltageLevel>
    </iidm:substation>
    <iidm:substation id="S19">
        <iidm:voltageLevel id="VL19" nominalV="1.0" topologyKind="BUS_BREAKER">
            <iidm:busBreakerTopology>
                <iidm:bus id="B19" name="Bus 19    V2" v="0.97" angle="-13.2"/>
            </iidm:busBreakerTopology>
            <iidm:load id="B19-L" loadType="UNDEFINED" p0="3.3" q0="0.6" bus="B19" connectableBus="B19"/>
        </iidm:voltageLevel>
    </iidm:substation>
    <iidm:substation id="S20">
        <iidm:voltageLevel id="VL20" nominalV="1.0" topologyKind="BUS_BREAKER">
            <iidm:busBreakerTopology>
                <iidm:bus id="B20" name="Bus 20    V2" v="0.964" angle="-13.41"/>
                <iidm:bus id="B21" name="Bus 21    V3" v="1.008" angle="-12.89"/>
            </iidm:busBreakerTopology>
            <iidm:load id="B20-L" loadType="UNDEFINED" p0="2.3" q0="1.0" bus="B20" connectableBus="B20"/>
        </iidm:voltageLevel>
        <iidm:twoWindingsTransformer id="T21-20-1" r="0.0" x="0.007767" ratedU1="1.043" ratedU2="1.0" voltageLevelId1="VL20" bus1="B21" connectableBus1="B21" voltageLevelId2="VL20" bus2="B20" connectableBus2="B20"/>
    </iidm:substation>
    <iidm:substation id="S22">
        <iidm:voltageLevel id="VL22" nominalV="1.0" topologyKind="BUS_BREAKER">
            <iidm:busBreakerTopology>
                <iidm:bus id="B22" name="Bus 22    V3" v="1.01" angle="-12.84"/>
            </iidm:busBreakerTopology>
        </iidm:voltageLevel>
    </iidm:substation>
    <iidm:substation id="S23">
        <iidm:voltageLevel id="VL23" nominalV="1.0" topologyKind="BUS_BREAKER">
            <iidm:busBreakerTopology>
                <iidm:bus id="B23" name="Bus 23    V3" v="1.008" angle="-12.91"/>
            </iidm:busBreakerTopology>
            <iidm:load id="B23-L" loadType="UNDEFINED" p0="6.3" q0="2.1" bus="B23" connectableBus="B23"/>
        </iidm:voltageLevel>
    </iidm:substation>
    <iidm:substation id="S24">
        <iidm:voltageLevel id="VL24" nominalV="1.0" topologyKind="BUS_BREAKER">
            <iidm:busBreakerTopology>
                <iidm:bus id="B24" name="Bus 24    V3" v="0.999" angle="-13.25"/>
                <iidm:bus id="B25" name="Bus 25    V4" v="0.982" angle="-18.13"/>
                <iidm:bus id="B26" name="Bus 26    V5" v="0.959" angle="-12.95"/>
            </iidm:busBreakerTopology>
            <iidm:load id="B25-L" loadType="UNDEFINED" p0="6.3" q0="3.2" bus="B25" connectableBus="B25"/>
            <iidm:shuntCompensator id="B25-SH" sectionCount="1" voltageRegulatorOn="false" bus="B25" connectableBus="B25">
                <iidm:shuntLinearModel bPerSection="5.8999999999999995" maximumSectionCount="1"/>
            </iidm:shuntCompensator>
        </iidm:voltageLevel>
        <iidm:twoWindingsTransformer id="T24-25-1" r="0.0" x="0.011819999999999999" ratedU1="1.0" ratedU2="1.0" voltageLevelId1="VL24" bus1="B24" connectableBus1="B24" voltageLevelId2="VL24" bus2="B25" connectableBus2="B25"/>
        <iidm:twoWindingsTransformer id="T24-25-2" r="0.0" x="0.0123" ratedU1="1.0" ratedU2="1.0" voltageLevelId1="VL24" bus1="B24" connectableBus1="B24" voltageLevelId2="VL24" bus2="B25" connectableBus2="B25"/>
        <iidm:twoWindingsTransformer id="T24-26-1" r="0.0" x="4.73E-4" ratedU1="1.043" ratedU2="1.0" voltageLevelId1="VL24" bus1="B24" connectableBus1="B24" voltageLevelId2="VL24" bus2="B26" connectableBus2="B26"/>
    </iidm:substation>
    <iidm:substation id="S27">
        <iidm:voltageLevel id="VL27" nominalV="1.0" topologyKind="BUS_BREAKER">
            <iidm:busBreakerTopology>
                <iidm:bus id="B27" name="Bus 27    V5" v="0.982" angle="-11.48"/>
            </iidm:busBreakerTopology>
            <iidm:load id="B27-L" loadType="UNDEFINED" p0="9.3" q0="0.5" bus="B27" connectableBus="B27"/>
        </iidm:voltageLevel>
    </iidm:substation>
    <iidm:substation id="S28">
        <iidm:voltageLevel id="VL28" nominalV="1.0" topologyKind="BUS_BREAKER">
            <iidm:busBreakerTopology>
                <iidm:bus id="B28" name="Bus 28    V5" v="0.997" angle="-10.45"/>
            </iidm:busBreakerTopology>
            <iidm:load id="B28-L" loadType="UNDEFINED" p0="4.6" q0="2.3" bus="B28" connectableBus="B28"/>
        </iidm:voltageLevel>
    </iidm:substation>
    <iidm:substation id="S30">
        <iidm:voltageLevel id="VL30" nominalV="1.0" topologyKind="BUS_BREAKER">
            <iidm:busBreakerTopology>
                <iidm:bus id="B30" name="Bus 30    V4" v="0.962" angle="-18.68"/>
            </iidm:busBreakerTopology>
            <iidm:load id="B30-L" loadType="UNDEFINED" p0="3.6" q0="1.8" bus="B30" connectableBus="B30"/>
        </iidm:voltageLevel>
    </iidm:substation>
    <iidm:substation id="S31">
        <iidm:voltageLevel id="VL31" nominalV="1.0" topologyKind="BUS_BREAKER">
            <iidm:busBreakerTopology>
                <iidm:bus id="B31" name="Bus 31    V4" v="0.936" angle="-19.34"/>
            </iidm:busBreakerTopology>
            <iidm:load id="B31-L" loadType="UNDEFINED" p0="5.8" q0="2.9" bus="B31" connectableBus="B31"/>
        </iidm:voltageLevel>
    </iidm:substation>
    <iidm:substation id="S32">
        <iidm:voltageLevel id="VL32" nominalV="1.0" topologyKind="BUS_BREAKER">
            <iidm:busBreakerTopology>
                <iidm:bus id="B32" name="Bus 32    V4" v="0.949" angle="-18.46"/>
                <iidm:bus id="B34" name="Bus 34    V3" v="0.959" angle="-14.1"/>
            </iidm:busBreakerTopology>
            <iidm:load id="B32-L" loadType="UNDEFINED" p0="1.6" q0="0.8" bus="B32" connectableBus="B32"/>
        </iidm:voltageLevel>
        <iidm:twoWindingsTransformer id="T34-32-1" r="0.0" x="0.00953" ratedU1="0.975" ratedU2="1.0" voltageLevelId1="VL32" bus1="B34" connectableBus1="B34" voltageLevelId2="VL32" bus2="B32" connectableBus2="B32"/>
    </iidm:substation>
    <iidm:substation id="S33">
        <iidm:voltageLevel id="VL33" nominalV="1.0" topologyKind="BUS_BREAKER">
            <iidm:busBreakerTopology>
                <iidm:bus id="B33" name="Bus 33    V4" v="0.947" angle="-18.5"/>
            </iidm:busBreakerTopology>
            <iidm:load id="B33-L" loadType="UNDEFINED" p0="3.8" q0="1.9" bus="B33" connectableBus="B33"/>
        </iidm:voltageLevel>
    </iidm:substation>
    <iidm:substation id="S35">
        <iidm:voltageLevel id="VL35" nominalV="1.0" topologyKind="BUS_BREAKER">
            <iidm:busBreakerTopology>
                <iidm:bus id="B35" name="Bus 35    V3" v="0.966" angle="-13.86"/>
            </iidm:busBreakerTopology>
            <iidm:load id="B35-L" loadType="UNDEFINED" p0="6.0" q0="3.0" bus="B35" connectableBus="B35"/>
        </iidm:voltageLevel>
    </iidm:substation>
    <iidm:substation id="S36">
        <iidm:voltageLevel id="VL36" nominalV="1.0" topologyKind="BUS_BREAKER">
            <iidm:busBreakerTopology>
                <iidm:bus id="B36" name="Bus 36    V3" v="0.976" angle="-13.59"/>
            </iidm:busBreakerTopology>
        </iidm:voltageLevel>
    </iidm:substation>
    <iidm:substation id="S37">
        <iidm:voltageLevel id="VL37" nominalV="1.0" topologyKind="BUS_BREAKER">
            <iidm:busBreakerTopology>
                <iidm:bus id="B37" name="Bus 37    V3" v="0.985" angle="-13.41"/>
            </iidm:busBreakerTopology>
        </iidm:voltageLevel>
    </iidm:substation>
    <iidm:substation id="S38">
        <iidm:voltageLevel id="VL38" nominalV="1.0" topologyKind="BUS_BREAKER">
            <iidm:busBreakerTopology>
                <iidm:bus id="B38" name="Bus 38    V3" v="1.013" angle="-12.71"/>
            </iidm:busBreakerTopology>
            <iidm:load id="B38-L" loadType="UNDEFINED" p0="14.0" q0="7.0" bus="B38" connectableBus="B38"/>
        </iidm:voltageLevel>
    </iidm:substation>
    <iidm:substation id="S39">
        <iidm:voltageLevel id="VL39" nominalV="1.0" topologyKind="BUS_BREAKER">
            <iidm:busBreakerTopology>
                <iidm:bus id="B39" name="Bus 39    V3" v="0.983" angle="-13.46"/>
                <iidm:bus id="B57" name="Bus 57    V6" v="0.965" angle="-16.56"/>
            </iidm:busBreakerTopology>
            <iidm:load id="B57-L" loadType="UNDEFINED" p0="6.7" q0="2.0" bus="B57" connectableBus="B57"/>
        </iidm:voltageLevel>
        <iidm:twoWindingsTransformer id="T39-57-1" r="0.0" x="0.01355" ratedU1="0.98" ratedU2="1.0" voltageLevelId1="VL39" bus1="B39" connectableBus1="B39" voltageLevelId2="VL39" bus2="B57" connectableBus2="B57"/>
    </iidm:substation>
    <iidm:substation id="S40">
        <iidm:voltageLevel id="VL40" nominalV="1.0" topologyKind="BUS_BREAKER">
            <iidm:busBreakerTopology>
                <iidm:bus id="B40" name="Bus 40    V3" v="0.973" angle="-13.62"/>
                <iidm:bus id="B56" name="Bus 56    V6" v="0.968" angle="-16.04"/>
            </iidm:busBreakerTopology>
            <iidm:load id="B56-L" loadType="UNDEFINED" p0="7.6" q0="2.2" bus="B56" connectableBus="B56"/>
        </iidm:voltageLevel>
        <iidm:twoWindingsTransformer id="T40-56-1" r="0.0" x="0.01195" ratedU1="0.958" ratedU2="1.0" voltageLevelId1="VL40" bus1="B40" connectableBus1="B40" voltageLevelId2="VL40" bus2="B56" connectableBus2="B56"/>
    </iidm:substation>
    <iidm:substation id="S42">
        <iidm:voltageLevel id="VL42" nominalV="1.0" topologyKind="BUS_BREAKER">
            <iidm:busBreakerTopology>
                <iidm:bus id="B42" name="Bus 42    V6" v="0.966" angle="-15.5"/>
            </iidm:busBreakerTopology>
            <iidm:load id="B42-L" loadType="UNDEFINED" p0="7.1" q0="4.4" bus="B42" connectableBus="B42"/>
        </iidm:voltageLevel>
    </iidm:substation>
    <iidm:substation id="S44">
        <iidm:voltageLevel id="VL44" nominalV="1.0" topologyKind="BUS_BREAKER">
            <iidm:busBreakerTopology>
                <iidm:bus id="B44" name="Bus 44    V3" v="1.017" angle="-11.86"/>
            </iidm:busBreakerTopology>
            <iidm:load id="B44-L" loadType="UNDEFINED" p0="12.0" q0="1.8" bus="B44" connectableBus="B44"/>
        </iidm:voltageLevel>
    </iidm:substation>
    <iidm:substation id="S47">
        <iidm:voltageLevel id="VL47" nominalV="1.0" topologyKind="BUS_BREAKER">
            <iidm:busBreakerTopology>
                <iidm:bus id="B47" name="Bus 47    V3" v="1.033" angle="-12.49"/>
            </iidm:busBreakerTopology>
            <iidm:load id="B47-L" loadType="UNDEFINED" p0="29.7" q0="11.6" bus="B47" connectableBus="B47"/>
        </iidm:voltageLevel>
    </iidm:substation>
    <iidm:substation id="S48">
        <iidm:voltageLevel id="VL48" nominalV="1.0" topologyKind="BUS_BREAKER">
            <iidm:busBreakerTopology>
                <iidm:bus id="B48" name="Bus 48    V3" v="1.027" angle="-12.59"/>
            </iidm:busBreakerTopology>
        </iidm:voltageLevel>
    </iidm:substation>
    <iidm:substation id="S50">
        <iidm:voltageLevel id="VL50" nominalV="1.0" topologyKind="BUS_BREAKER">
            <iidm:busBreakerTopology>
                <iidm:bus id="B50" name="Bus 50    V3" v="1.023" angle="-13.39"/>
            </iidm:busBreakerTopology>
            <iidm:load id="B50-L" loadType="UNDEFINED" p0="21.0" q0="10.5" bus="B50" connectableBus="B50"/>
        </iidm:voltageLevel>
    </iidm:substation>
    <iidm:substation id="S52">
        <iidm:voltageLevel id="VL52" nominalV="1.0" topologyKind="BUS_BREAKER">
            <iidm:busBreakerTopology>
                <iidm:bus id="B52" name="Bus 52    V5" v="0.98" angle="-11.47"/>
            </iidm:busBreakerTopology>
            <iidm:load id="B52-L" loadType="UNDEFINED" p0="4.9" q0="2.2" bus="B52" connectableBus="B52"/>
        </iidm:voltageLevel>
    </iidm:substation>
    <iidm:substation id="S53">
        <iidm:voltageLevel id="VL53" nominalV="1.0" topologyKind="BUS_BREAKER">
            <iidm:busBreakerTopology>
                <iidm:bus id="B53" name="Bus 53    V5" v="0.971" angle="-12.23"/>
            </iidm:busBreakerTopology>
            <iidm:load id="B53-L" loadType="UNDEFINED" p0="20.0" q0="10.0" bus="B53" connectableBus="B53"/>
            <iidm:shuntCompensator id="B53-SH" sectionCount="1" voltageRegulatorOn="false" bus="B53" connectableBus="B53">
                <iidm:shuntLinearModel bPerSection="6.3" maximumSectionCount="1"/>
            </iidm:shuntCompensator>
        </iidm:voltageLevel>
    </iidm:substation>
    <iidm:substation id="S54">
        <iidm:voltageLevel id="VL54" nominalV="1.0" topologyKind="BUS_BREAKER">
            <iidm:busBreakerTopology>
                <iidm:bus id="B54" name="Bus 54    V5" v="0.996" angle="-11.69"/>
            </iidm:busBreakerTopology>
            <iidm:load id="B54-L" loadType="UNDEFINED" p0="4.1" q0="1.4" bus="B54" connectableBus="B54"/>
        </iidm:voltageLevel>
    </iidm:substation>
    <iidm:line id="L1-2-1" r="8.3E-5" x="2.8000000000000003E-4" b1="6.45" b2="6.45" voltageLevelId1="VL1" bus1="B1" connectableBus1="B1" voltageLevelId2="VL2" bus2="B2" connectableBus2="B2"/>
    <iidm:line id="L2-3-1" r="2.98E-4" x="8.500000000000001E-4" b1="4.09" b2="4.09" voltageLevelId1="VL2" bus1="B2" connectableBus1="B2" voltageLevelId2="VL3" bus2="B3" connectableBus2="B3"/>
    <iidm:line id="L3-4-1" r="1.12E-4" x="3.66E-4" b1="1.9" b2="1.9" voltageLevelId1="VL3" bus1="B3" connectableBus1="B3" voltageLevelId2="VL4" bus2="B4" connectableBus2="B4"/>
    <iidm:line id="L4-5-1" r="6.25E-4" x="0.00132" b1="1.29" b2="1.29" voltageLevelId1="VL4" bus1="B4" connectableBus1="B4" voltageLevelId2="VL5" bus2="B5" connectableBus2="B5"/>
    <iidm:line id="L4-6-1" r="4.3E-4" x="0.00148" b1="1.7399999999999998" b2="1.7399999999999998" voltageLevelId1="VL4" bus1="B4" connectableBus1="B4" voltageLevelId2="VL6" bus2="B6" connectableBus2="B6"/>
    <iidm:line id="L6-7-1" r="2.0E-4" x="0.0010199999999999999" b1="1.38" b2="1.38" voltageLevelId1="VL6" bus1="B6" connectableBus1="B6" voltageLevelId2="VL7" bus2="B7" connectableBus2="B7"/>
    <iidm:line id="L6-8-1" r="3.39E-4" x="0.0017299999999999998" b1="2.35" b2="2.35" voltageLevelId1="VL6" bus1="B6" connectableBus1="B6" voltageLevelId2="VL8" bus2="B8" connectableBus2="B8"/>
    <iidm:line id="L8-9-1" r="9.900000000000001E-5" x="5.05E-4" b1="2.74" b2="2.74" voltageLevelId1="VL8" bus1="B8" connectableBus1="B8" voltageLevelId2="VL9" bus2="B9" connectableBus2="B9"/>
    <iidm:line id="L9-10-1" r="3.69E-4" x="0.001679" b1="2.1999999999999997" b2="2.1999999999999997" voltageLevelId1="VL9" bus1="B9" connectableBus1="B9" voltageLevelId2="VL10" bus2="B10" connectableBus2="B10"/>
    <iidm:line id="L9-11-1" r="2.58E-4" x="8.48E-4" b1="1.09" b2="1.09" voltageLevelId1="VL9" bus1="B9" connectableBus1="B9" voltageLevelId2="VL11" bus2="B11" connectableBus2="B11"/>
    <iidm:line id="L9-12-1" r="6.479999999999999E-4" x="0.00295" b1="3.8600000000000003" b2="3.8600000000000003" voltageLevelId1="VL9" bus1="B9" connectableBus1="B9" voltageLevelId2="VL12" bus2="B12" connectableBus2="B12"/>
    <iidm:line id="L9-13-1" r="4.81E-4" x="0.00158" b1="2.03" b2="2.03" voltageLevelId1="VL9" bus1="B9" connectableBus1="B9" voltageLevelId2="VL13" bus2="B13" connectableBus2="B13"/>
    <iidm:line id="L13-14-1" r="1.32E-4" x="4.3400000000000003E-4" b1="0.5499999999999999" b2="0.5499999999999999" voltageLevelId1="VL13" bus1="B13" connectableBus1="B13" voltageLevelId2="VL14" bus2="B14" connectableBus2="B14"/>
    <iidm:line id="L13-15-1" r="2.69E-4" x="8.690000000000001E-4" b1="1.15" b2="1.15" voltageLevelId1="VL13" bus1="B13" connectableBus1="B13" voltageLevelId2="VL15" bus2="B15" connectableBus2="B15"/>
    <iidm:line id="L1-15-1" r="1.78E-4" x="9.1E-4" b1="4.9399999999999995" b2="4.9399999999999995" voltageLevelId1="VL1" bus1="B1" connectableBus1="B1" voltageLevelId2="VL15" bus2="B15" connectableBus2="B15"/>
    <iidm:line id="L1-16-1" r="4.5400000000000003E-4" x="0.0020599999999999998" b1="2.73" b2="2.73" voltageLevelId1="VL1" bus1="B1" connectableBus1="B1" voltageLevelId2="VL16" bus2="B16" connectableBus2="B16"/>
    <iidm:line id="L1-17-1" r="2.38E-4" x="0.00108" b1="1.43" b2="1.43" voltageLevelId1="VL1" bus1="B1" connectableBus1="B1" voltageLevelId2="VL17" bus2="B17" connectableBus2="B17"/>
    <iidm:line id="L3-15-1" r="1.6199999999999998E-4" x="5.3E-4" b1="2.7199999999999998" b2="2.7199999999999998" voltageLevelId1="VL3" bus1="B3" connectableBus1="B3" voltageLevelId2="VL15" bus2="B15" connectableBus2="B15"/>
    <iidm:line id="L5-6-1" r="3.02E-4" x="6.410000000000001E-4" b1="0.62" b2="0.62" voltageLevelId1="VL5" bus1="B5" connectableBus1="B5" voltageLevelId2="VL6" bus2="B6" connectableBus2="B6"/>
    <iidm:line id="L7-8-1" r="1.39E-4" x="7.12E-4" b1="0.97" b2="0.97" voltageLevelId1="VL7" bus1="B7" connectableBus1="B7" voltageLevelId2="VL8" bus2="B8" connectableBus2="B8"/>
    <iidm:line id="L10-12-1" r="2.77E-4" x="0.001262" b1="1.6400000000000001" b2="1.6400000000000001" voltageLevelId1="VL10" bus1="B10" connectableBus1="B10" voltageLevelId2="VL12" bus2="B12" connectableBus2="B12"/>
    <iidm:line id="L11-13-1" r="2.23E-4" x="7.32E-4" b1="0.9400000000000001" b2="0.9400000000000001" voltageLevelId1="VL11" bus1="B11" connectableBus1="B11" voltageLevelId2="VL13" bus2="B13" connectableBus2="B13"/>
    <iidm:line id="L12-13-1" r="1.78E-4" x="5.8E-4" b1="3.02" b2="3.02" voltageLevelId1="VL12" bus1="B12" connectableBus1="B12" voltageLevelId2="VL13" bus2="B13" connectableBus2="B13"/>
    <iidm:line id="L12-16-1" r="1.7999999999999998E-4" x="8.129999999999999E-4" b1="1.08" b2="1.08" voltageLevelId1="VL12" bus1="B12" connectableBus1="B12" voltageLevelId2="VL16" bus2="B16" connectableBus2="B16"/>
    <iidm:line id="L12-17-1" r="3.97E-4" x="0.00179" b1="2.3800000000000003" b2="2.3800000000000003" voltageLevelId1="VL12" bus1="B12" connectableBus1="B12" voltageLevelId2="VL17" bus2="B17" connectableBus2="B17"/>
    <iidm:line id="L14-15-1" r="1.71E-4" x="5.47E-4" b1="0.74" b2="0.74" voltageLevelId1="VL14" bus1="B14" connectableBus1="B14" voltageLevelId2="VL15" bus2="B15" connectableBus2="B15"/>
    <iidm:line id="L18-19-1" r="0.00461" x="0.00685" voltageLevelId1="VL4" bus1="B18" connectableBus1="B18" voltageLevelId2="VL19" bus2="B19" connectableBus2="B19"/>
    <iidm:line id="L19-20-1" r="0.0028299999999999996" x="0.00434" voltageLevelId1="VL19" bus1="B19" connectableBus1="B19" voltageLevelId2="VL20" bus2="B20" connectableBus2="B20"/>
    <iidm:line id="L21-22-1" r="7.36E-4" x="0.00117" voltageLevelId1="VL20" bus1="B21" connectableBus1="B21" voltageLevelId2="VL22" bus2="B22" connectableBus2="B22"/>
    <iidm:line id="L22-23-1" r="9.900000000000001E-5" x="1.52E-4" voltageLevelId1="VL22" bus1="B22" connectableBus1="B22" voltageLevelId2="VL23" bus2="B23" connectableBus2="B23"/>
    <iidm:line id="L23-24-1" r="0.00166" x="0.00256" b1="0.42" b2="0.42" voltageLevelId1="VL23" bus1="B23" connectableBus1="B23" voltageLevelId2="VL24" bus2="B24" connectableBus2="B24"/>
    <iidm:line id="L26-27-1" r="0.00165" x="0.00254" voltageLevelId1="VL24" bus1="B26" connectableBus1="B26" voltageLevelId2="VL27" bus2="B27" connectableBus2="B27"/>
    <iidm:line id="L27-28-1" r="6.180000000000001E-4" x="9.54E-4" voltageLevelId1="VL27" bus1="B27" connectableBus1="B27" voltageLevelId2="VL28" bus2="B28" connectableBus2="B28"/>
    <iidm:line id="L28-29-1" r="4.1799999999999997E-4" x="5.870000000000001E-4" voltageLevelId1="VL28" bus1="B28" connectableBus1="B28" voltageLevelId2="VL7" bus2="B29" connectableBus2="B29"/>
    <iidm:line id="L25-30-1" r="0.00135" x="0.00202" voltageLevelId1="VL24" bus1="B25" connectableBus1="B25" voltageLevelId2="VL30" bus2="B30" connectableBus2="B30"/>
    <iidm:line id="L30-31-1" r="0.0032600000000000003" x="0.00497" voltageLevelId1="VL30" bus1="B30" connectableBus1="B30" voltageLevelId2="VL31" bus2="B31" connectableBus2="B31"/>
    <iidm:line id="L31-32-1" r="0.00507" x="0.00755" voltageLevelId1="VL31" bus1="B31" connectableBus1="B31" voltageLevelId2="VL32" bus2="B32" connectableBus2="B32"/>
    <iidm:line id="L32-33-1" r="3.92E-4" x="3.5999999999999997E-4" voltageLevelId1="VL32" bus1="B32" connectableBus1="B32" voltageLevelId2="VL33" bus2="B33" connectableBus2="B33"/>
    <iidm:line id="L34-35-1" r="5.2E-4" x="7.8E-4" b1="0.16" b2="0.16" voltageLevelId1="VL32" bus1="B34" connectableBus1="B34" voltageLevelId2="VL35" bus2="B35" connectableBus2="B35"/>
    <iidm:line id="L35-36-1" r="4.3E-4" x="5.369999999999999E-4" b1="0.08" b2="0.08" voltageLevelId1="VL35" bus1="B35" connectableBus1="B35" voltageLevelId2="VL36" bus2="B36" connectableBus2="B36"/>
    <iidm:line id="L36-37-1" r="2.9E-4" x="3.66E-4" voltageLevelId1="VL36" bus1="B36" connectableBus1="B36" voltageLevelId2="VL37" bus2="B37" connectableBus2="B37"/>
    <iidm:line id="L37-38-1" r="6.510000000000001E-4" x="0.0010090000000000001" b1="0.1" b2="0.1" voltageLevelId1="VL37" bus1="B37" connectableBus1="B37" voltageLevelId2="VL38" bus2="B38" connectableBus2="B38"/>
    <iidm:line id="L37-39-1" r="2.39E-4" x="3.7900000000000005E-4" voltageLevelId1="VL37" bus1="B37" connectableBus1="B37" voltageLevelId2="VL39" bus2="B39" connectableBus2="B39"/>
    <iidm:line id="L36-40-1" r="3.0E-4" x="4.6600000000000005E-4" voltageLevelId1="VL36" bus1="B36" connectableBus1="B36" voltageLevelId2="VL40" bus2="B40" connectableBus2="B40"/>
    <iidm:line id="L22-38-1" r="1.9199999999999998E-4" x="2.9499999999999996E-4" voltageLevelId1="VL22" bus1="B22" connectableBus1="B22" voltageLevelId2="VL38" bus2="B38" connectableBus2="B38"/>
    <iidm:line id="L41-42-1" r="0.00207" x="0.0035199999999999997" voltageLevelId1="VL11" bus1="B41" connectableBus1="B41" voltageLevelId2="VL42" bus2="B42" connectableBus2="B42"/>
    <iidm:line id="L41-43-1" r="0.0" x="0.0041199999999999995" voltageLevelId1="VL11" bus1="B41" connectableBus1="B41" voltageLevelId2="VL11" bus2="B43" connectableBus2="B43"/>
    <iidm:line id="L38-44-1" r="2.89E-4" x="5.85E-4" b1="0.1" b2="0.1" voltageLevelId1="VL38" bus1="B38" connectableBus1="B38" voltageLevelId2="VL44" bus2="B44" connectableBus2="B44"/>
    <iidm:line id="L46-47-1" r="2.3E-4" x="6.8E-4" b1="0.16" b2="0.16" voltageLevelId1="VL14" bus1="B46" connectableBus1="B46" voltageLevelId2="VL47" bus2="B47" connectableBus2="B47"/>
    <iidm:line id="L47-48-1" r="1.82E-4" x="2.3300000000000003E-4" voltageLevelId1="VL47" bus1="B47" connectableBus1="B47" voltageLevelId2="VL48" bus2="B48" connectableBus2="B48"/>
    <iidm:line id="L48-49-1" r="8.34E-4" x="0.0012900000000000001" b1="0.24" b2="0.24" voltageLevelId1="VL48" bus1="B48" connectableBus1="B48" voltageLevelId2="VL13" bus2="B49" connectableBus2="B49"/>
    <iidm:line id="L49-50-1" r="8.010000000000001E-4" x="0.00128" voltageLevelId1="VL13" bus1="B49" connectableBus1="B49" voltageLevelId2="VL50" bus2="B50" connectableBus2="B50"/>
    <iidm:line id="L50-51-1" r="0.001386" x="0.0022" voltageLevelId1="VL50" bus1="B50" connectableBus1="B50" voltageLevelId2="VL10" bus2="B51" connectableBus2="B51"/>
    <iidm:line id="L29-52-1" r="0.001442" x="0.00187" voltageLevelId1="VL7" bus1="B29" connectableBus1="B29" voltageLevelId2="VL52" bus2="B52" connectableBus2="B52"/>
    <iidm:line id="L52-53-1" r="7.620000000000001E-4" x="9.84E-4" voltageLevelId1="VL52" bus1="B52" connectableBus1="B52" voltageLevelId2="VL53" bus2="B53" connectableBus2="B53"/>
    <iidm:line id="L53-54-1" r="0.001878" x="0.00232" voltageLevelId1="VL53" bus1="B53" connectableBus1="B53" voltageLevelId2="VL54" bus2="B54" connectableBus2="B54"/>
    <iidm:line id="L54-55-1" r="0.001732" x="0.002265" voltageLevelId1="VL54" bus1="B54" connectableBus1="B54" voltageLevelId2="VL9" bus2="B55" connectableBus2="B55"/>
    <iidm:line id="L44-45-1" r="6.24E-4" x="0.001242" b1="0.2" b2="0.2" voltageLevelId1="VL44" bus1="B44" connectableBus1="B44" voltageLevelId2="VL15" bus2="B45" connectableBus2="B45"/>
    <iidm:line id="L56-41-1" r="0.00553" x="0.00549" voltageLevelId1="VL40" bus1="B56" connectableBus1="B56" voltageLevelId2="VL11" bus2="B41" connectableBus2="B41"/>
    <iidm:line id="L56-42-1" r="0.002125" x="0.0035399999999999997" voltageLevelId1="VL40" bus1="B56" connectableBus1="B56" voltageLevelId2="VL42" bus2="B42" connectableBus2="B42"/>
    <iidm:line id="L57-56-1" r="0.0017399999999999998" x="0.0026" voltageLevelId1="VL39" bus1="B57" connectableBus1="B57" voltageLevelId2="VL40" bus2="B56" connectableBus2="B56"/>
    <iidm:line id="L38-49-1" r="0.00115" x="0.0017699999999999999" b1="0.15" b2="0.15" voltageLevelId1="VL38" bus1="B38" connectableBus1="B38" voltageLevelId2="VL13" bus2="B49" connectableBus2="B49"/>
    <iidm:line id="L38-48-1" r="3.12E-4" x="4.82E-4" voltageLevelId1="VL38" bus1="B38" connectableBus1="B38" voltageLevelId2="VL48" bus2="B48" connectableBus2="B48"/>
    <iidm:extension id="VL1">
        <slt:slackTerminal id="B1-L"/>
    </iidm:extension>
</iidm:network>
